**************************************************
* OpenRAM generated memory.
* Words: 64
* Data bits: 256
* Banks: 1
* Column mux: 1:1
**************************************************
* File: DFFPOSX1.pex.netlist
* Created: Wed Jan  2 18:36:24 2008
* Program "Calibre xRC"
* Version "v2007.2_34.24"
*
.subckt dff D Q clk vdd gnd
*
MM21 Q a_66_6# gnd gnd NMOS_VTG L=5e-08 W=5e-07
MM19 a_76_6# a_2_6# a_66_6# gnd NMOS_VTG L=5e-08 W=2.5e-07
MM20 gnd Q a_76_6# gnd NMOS_VTG L=5e-08 W=2.5e-07
MM18 a_66_6# clk a_61_6# gnd NMOS_VTG L=5e-08 W=2.5e-07
MM17 a_61_6# a_34_4# gnd gnd NMOS_VTG L=5e-08 W=2.5e-07
MM10 gnd clk a_2_6# gnd NMOS_VTG L=5e-08 W=5e-07
MM16 a_34_4# a_22_6# gnd gnd NMOS_VTG L=5e-08 W=2.5e-07
MM15 gnd a_34_4# a_31_6# gnd NMOS_VTG L=5e-08 W=2.5e-07
MM14 a_31_6# clk a_22_6# gnd NMOS_VTG L=5e-08 W=2.5e-07
MM13 a_22_6# a_2_6# a_17_6# gnd NMOS_VTG L=5e-08 W=2.5e-07
MM12 a_17_6# D gnd gnd NMOS_VTG L=5e-08 W=2.5e-07
MM11 Q a_66_6# vdd vdd PMOS_VTG L=5e-08 W=1e-06
MM9 vdd Q a_76_84# vdd PMOS_VTG L=5e-08 W=2.5e-07
MM8 a_76_84# clk a_66_6# vdd PMOS_VTG L=5e-08 W=2.5e-07
MM7 a_66_6# a_2_6# a_61_74# vdd PMOS_VTG L=5e-08 W=5e-07
MM6 a_61_74# a_34_4# vdd vdd PMOS_VTG L=5e-08 W=5e-07
MM0 vdd clk a_2_6# vdd PMOS_VTG L=5e-08 W=1e-06
MM5 a_34_4# a_22_6# vdd vdd PMOS_VTG L=5e-08 W=5e-07
MM4 vdd a_34_4# a_31_74# vdd PMOS_VTG L=5e-08 W=5e-07
MM3 a_31_74# a_2_6# a_22_6# vdd PMOS_VTG L=5e-08 W=5e-07
MM2 a_22_6# clk a_17_74# vdd PMOS_VTG L=5e-08 W=5e-07
MM1 a_17_74# D vdd vdd PMOS_VTG L=5e-08 W=5e-07
* c_9 a_66_6# 0 0.271997f
* c_20 clk 0 0.350944f
* c_27 Q 0 0.202617f
* c_32 a_76_84# 0 0.0210573f
* c_38 a_76_6# 0 0.0204911f
* c_45 a_34_4# 0 0.172306f
* c_55 a_2_6# 0 0.283119f
* c_59 a_22_6# 0 0.157312f
* c_64 D 0 0.0816386f
* c_73 gnd 0 0.254131f
* c_81 vdd 0 0.23624f
*
*.include "dff.pex.netlist.dff.pxi"
*
.ends
*
*

.SUBCKT row_addr_dff din_0 din_1 din_2 din_3 din_4 din_5 dout_0 dout_1 dout_2 dout_3 dout_4 dout_5 clk vdd gnd
* INPUT : din_0 
* INPUT : din_1 
* INPUT : din_2 
* INPUT : din_3 
* INPUT : din_4 
* INPUT : din_5 
* OUTPUT: dout_0 
* OUTPUT: dout_1 
* OUTPUT: dout_2 
* OUTPUT: dout_3 
* OUTPUT: dout_4 
* OUTPUT: dout_5 
* INPUT : clk 
* POWER : vdd 
* GROUND: gnd 
* rows: 6 cols: 1
Xdff_r0_c0 din_0 dout_0 clk vdd gnd dff
Xdff_r1_c0 din_1 dout_1 clk vdd gnd dff
Xdff_r2_c0 din_2 dout_2 clk vdd gnd dff
Xdff_r3_c0 din_3 dout_3 clk vdd gnd dff
Xdff_r4_c0 din_4 dout_4 clk vdd gnd dff
Xdff_r5_c0 din_5 dout_5 clk vdd gnd dff
.ENDS row_addr_dff

.SUBCKT data_dff din_0 din_1 din_2 din_3 din_4 din_5 din_6 din_7 din_8 din_9 din_10 din_11 din_12 din_13 din_14 din_15 din_16 din_17 din_18 din_19 din_20 din_21 din_22 din_23 din_24 din_25 din_26 din_27 din_28 din_29 din_30 din_31 din_32 din_33 din_34 din_35 din_36 din_37 din_38 din_39 din_40 din_41 din_42 din_43 din_44 din_45 din_46 din_47 din_48 din_49 din_50 din_51 din_52 din_53 din_54 din_55 din_56 din_57 din_58 din_59 din_60 din_61 din_62 din_63 din_64 din_65 din_66 din_67 din_68 din_69 din_70 din_71 din_72 din_73 din_74 din_75 din_76 din_77 din_78 din_79 din_80 din_81 din_82 din_83 din_84 din_85 din_86 din_87 din_88 din_89 din_90 din_91 din_92 din_93 din_94 din_95 din_96 din_97 din_98 din_99 din_100 din_101 din_102 din_103 din_104 din_105 din_106 din_107 din_108 din_109 din_110 din_111 din_112 din_113 din_114 din_115 din_116 din_117 din_118 din_119 din_120 din_121 din_122 din_123 din_124 din_125 din_126 din_127 din_128 din_129 din_130 din_131 din_132 din_133 din_134 din_135 din_136 din_137 din_138 din_139 din_140 din_141 din_142 din_143 din_144 din_145 din_146 din_147 din_148 din_149 din_150 din_151 din_152 din_153 din_154 din_155 din_156 din_157 din_158 din_159 din_160 din_161 din_162 din_163 din_164 din_165 din_166 din_167 din_168 din_169 din_170 din_171 din_172 din_173 din_174 din_175 din_176 din_177 din_178 din_179 din_180 din_181 din_182 din_183 din_184 din_185 din_186 din_187 din_188 din_189 din_190 din_191 din_192 din_193 din_194 din_195 din_196 din_197 din_198 din_199 din_200 din_201 din_202 din_203 din_204 din_205 din_206 din_207 din_208 din_209 din_210 din_211 din_212 din_213 din_214 din_215 din_216 din_217 din_218 din_219 din_220 din_221 din_222 din_223 din_224 din_225 din_226 din_227 din_228 din_229 din_230 din_231 din_232 din_233 din_234 din_235 din_236 din_237 din_238 din_239 din_240 din_241 din_242 din_243 din_244 din_245 din_246 din_247 din_248 din_249 din_250 din_251 din_252 din_253 din_254 din_255 dout_0 dout_1 dout_2 dout_3 dout_4 dout_5 dout_6 dout_7 dout_8 dout_9 dout_10 dout_11 dout_12 dout_13 dout_14 dout_15 dout_16 dout_17 dout_18 dout_19 dout_20 dout_21 dout_22 dout_23 dout_24 dout_25 dout_26 dout_27 dout_28 dout_29 dout_30 dout_31 dout_32 dout_33 dout_34 dout_35 dout_36 dout_37 dout_38 dout_39 dout_40 dout_41 dout_42 dout_43 dout_44 dout_45 dout_46 dout_47 dout_48 dout_49 dout_50 dout_51 dout_52 dout_53 dout_54 dout_55 dout_56 dout_57 dout_58 dout_59 dout_60 dout_61 dout_62 dout_63 dout_64 dout_65 dout_66 dout_67 dout_68 dout_69 dout_70 dout_71 dout_72 dout_73 dout_74 dout_75 dout_76 dout_77 dout_78 dout_79 dout_80 dout_81 dout_82 dout_83 dout_84 dout_85 dout_86 dout_87 dout_88 dout_89 dout_90 dout_91 dout_92 dout_93 dout_94 dout_95 dout_96 dout_97 dout_98 dout_99 dout_100 dout_101 dout_102 dout_103 dout_104 dout_105 dout_106 dout_107 dout_108 dout_109 dout_110 dout_111 dout_112 dout_113 dout_114 dout_115 dout_116 dout_117 dout_118 dout_119 dout_120 dout_121 dout_122 dout_123 dout_124 dout_125 dout_126 dout_127 dout_128 dout_129 dout_130 dout_131 dout_132 dout_133 dout_134 dout_135 dout_136 dout_137 dout_138 dout_139 dout_140 dout_141 dout_142 dout_143 dout_144 dout_145 dout_146 dout_147 dout_148 dout_149 dout_150 dout_151 dout_152 dout_153 dout_154 dout_155 dout_156 dout_157 dout_158 dout_159 dout_160 dout_161 dout_162 dout_163 dout_164 dout_165 dout_166 dout_167 dout_168 dout_169 dout_170 dout_171 dout_172 dout_173 dout_174 dout_175 dout_176 dout_177 dout_178 dout_179 dout_180 dout_181 dout_182 dout_183 dout_184 dout_185 dout_186 dout_187 dout_188 dout_189 dout_190 dout_191 dout_192 dout_193 dout_194 dout_195 dout_196 dout_197 dout_198 dout_199 dout_200 dout_201 dout_202 dout_203 dout_204 dout_205 dout_206 dout_207 dout_208 dout_209 dout_210 dout_211 dout_212 dout_213 dout_214 dout_215 dout_216 dout_217 dout_218 dout_219 dout_220 dout_221 dout_222 dout_223 dout_224 dout_225 dout_226 dout_227 dout_228 dout_229 dout_230 dout_231 dout_232 dout_233 dout_234 dout_235 dout_236 dout_237 dout_238 dout_239 dout_240 dout_241 dout_242 dout_243 dout_244 dout_245 dout_246 dout_247 dout_248 dout_249 dout_250 dout_251 dout_252 dout_253 dout_254 dout_255 clk vdd gnd
* INPUT : din_0 
* INPUT : din_1 
* INPUT : din_2 
* INPUT : din_3 
* INPUT : din_4 
* INPUT : din_5 
* INPUT : din_6 
* INPUT : din_7 
* INPUT : din_8 
* INPUT : din_9 
* INPUT : din_10 
* INPUT : din_11 
* INPUT : din_12 
* INPUT : din_13 
* INPUT : din_14 
* INPUT : din_15 
* INPUT : din_16 
* INPUT : din_17 
* INPUT : din_18 
* INPUT : din_19 
* INPUT : din_20 
* INPUT : din_21 
* INPUT : din_22 
* INPUT : din_23 
* INPUT : din_24 
* INPUT : din_25 
* INPUT : din_26 
* INPUT : din_27 
* INPUT : din_28 
* INPUT : din_29 
* INPUT : din_30 
* INPUT : din_31 
* INPUT : din_32 
* INPUT : din_33 
* INPUT : din_34 
* INPUT : din_35 
* INPUT : din_36 
* INPUT : din_37 
* INPUT : din_38 
* INPUT : din_39 
* INPUT : din_40 
* INPUT : din_41 
* INPUT : din_42 
* INPUT : din_43 
* INPUT : din_44 
* INPUT : din_45 
* INPUT : din_46 
* INPUT : din_47 
* INPUT : din_48 
* INPUT : din_49 
* INPUT : din_50 
* INPUT : din_51 
* INPUT : din_52 
* INPUT : din_53 
* INPUT : din_54 
* INPUT : din_55 
* INPUT : din_56 
* INPUT : din_57 
* INPUT : din_58 
* INPUT : din_59 
* INPUT : din_60 
* INPUT : din_61 
* INPUT : din_62 
* INPUT : din_63 
* INPUT : din_64 
* INPUT : din_65 
* INPUT : din_66 
* INPUT : din_67 
* INPUT : din_68 
* INPUT : din_69 
* INPUT : din_70 
* INPUT : din_71 
* INPUT : din_72 
* INPUT : din_73 
* INPUT : din_74 
* INPUT : din_75 
* INPUT : din_76 
* INPUT : din_77 
* INPUT : din_78 
* INPUT : din_79 
* INPUT : din_80 
* INPUT : din_81 
* INPUT : din_82 
* INPUT : din_83 
* INPUT : din_84 
* INPUT : din_85 
* INPUT : din_86 
* INPUT : din_87 
* INPUT : din_88 
* INPUT : din_89 
* INPUT : din_90 
* INPUT : din_91 
* INPUT : din_92 
* INPUT : din_93 
* INPUT : din_94 
* INPUT : din_95 
* INPUT : din_96 
* INPUT : din_97 
* INPUT : din_98 
* INPUT : din_99 
* INPUT : din_100 
* INPUT : din_101 
* INPUT : din_102 
* INPUT : din_103 
* INPUT : din_104 
* INPUT : din_105 
* INPUT : din_106 
* INPUT : din_107 
* INPUT : din_108 
* INPUT : din_109 
* INPUT : din_110 
* INPUT : din_111 
* INPUT : din_112 
* INPUT : din_113 
* INPUT : din_114 
* INPUT : din_115 
* INPUT : din_116 
* INPUT : din_117 
* INPUT : din_118 
* INPUT : din_119 
* INPUT : din_120 
* INPUT : din_121 
* INPUT : din_122 
* INPUT : din_123 
* INPUT : din_124 
* INPUT : din_125 
* INPUT : din_126 
* INPUT : din_127 
* INPUT : din_128 
* INPUT : din_129 
* INPUT : din_130 
* INPUT : din_131 
* INPUT : din_132 
* INPUT : din_133 
* INPUT : din_134 
* INPUT : din_135 
* INPUT : din_136 
* INPUT : din_137 
* INPUT : din_138 
* INPUT : din_139 
* INPUT : din_140 
* INPUT : din_141 
* INPUT : din_142 
* INPUT : din_143 
* INPUT : din_144 
* INPUT : din_145 
* INPUT : din_146 
* INPUT : din_147 
* INPUT : din_148 
* INPUT : din_149 
* INPUT : din_150 
* INPUT : din_151 
* INPUT : din_152 
* INPUT : din_153 
* INPUT : din_154 
* INPUT : din_155 
* INPUT : din_156 
* INPUT : din_157 
* INPUT : din_158 
* INPUT : din_159 
* INPUT : din_160 
* INPUT : din_161 
* INPUT : din_162 
* INPUT : din_163 
* INPUT : din_164 
* INPUT : din_165 
* INPUT : din_166 
* INPUT : din_167 
* INPUT : din_168 
* INPUT : din_169 
* INPUT : din_170 
* INPUT : din_171 
* INPUT : din_172 
* INPUT : din_173 
* INPUT : din_174 
* INPUT : din_175 
* INPUT : din_176 
* INPUT : din_177 
* INPUT : din_178 
* INPUT : din_179 
* INPUT : din_180 
* INPUT : din_181 
* INPUT : din_182 
* INPUT : din_183 
* INPUT : din_184 
* INPUT : din_185 
* INPUT : din_186 
* INPUT : din_187 
* INPUT : din_188 
* INPUT : din_189 
* INPUT : din_190 
* INPUT : din_191 
* INPUT : din_192 
* INPUT : din_193 
* INPUT : din_194 
* INPUT : din_195 
* INPUT : din_196 
* INPUT : din_197 
* INPUT : din_198 
* INPUT : din_199 
* INPUT : din_200 
* INPUT : din_201 
* INPUT : din_202 
* INPUT : din_203 
* INPUT : din_204 
* INPUT : din_205 
* INPUT : din_206 
* INPUT : din_207 
* INPUT : din_208 
* INPUT : din_209 
* INPUT : din_210 
* INPUT : din_211 
* INPUT : din_212 
* INPUT : din_213 
* INPUT : din_214 
* INPUT : din_215 
* INPUT : din_216 
* INPUT : din_217 
* INPUT : din_218 
* INPUT : din_219 
* INPUT : din_220 
* INPUT : din_221 
* INPUT : din_222 
* INPUT : din_223 
* INPUT : din_224 
* INPUT : din_225 
* INPUT : din_226 
* INPUT : din_227 
* INPUT : din_228 
* INPUT : din_229 
* INPUT : din_230 
* INPUT : din_231 
* INPUT : din_232 
* INPUT : din_233 
* INPUT : din_234 
* INPUT : din_235 
* INPUT : din_236 
* INPUT : din_237 
* INPUT : din_238 
* INPUT : din_239 
* INPUT : din_240 
* INPUT : din_241 
* INPUT : din_242 
* INPUT : din_243 
* INPUT : din_244 
* INPUT : din_245 
* INPUT : din_246 
* INPUT : din_247 
* INPUT : din_248 
* INPUT : din_249 
* INPUT : din_250 
* INPUT : din_251 
* INPUT : din_252 
* INPUT : din_253 
* INPUT : din_254 
* INPUT : din_255 
* OUTPUT: dout_0 
* OUTPUT: dout_1 
* OUTPUT: dout_2 
* OUTPUT: dout_3 
* OUTPUT: dout_4 
* OUTPUT: dout_5 
* OUTPUT: dout_6 
* OUTPUT: dout_7 
* OUTPUT: dout_8 
* OUTPUT: dout_9 
* OUTPUT: dout_10 
* OUTPUT: dout_11 
* OUTPUT: dout_12 
* OUTPUT: dout_13 
* OUTPUT: dout_14 
* OUTPUT: dout_15 
* OUTPUT: dout_16 
* OUTPUT: dout_17 
* OUTPUT: dout_18 
* OUTPUT: dout_19 
* OUTPUT: dout_20 
* OUTPUT: dout_21 
* OUTPUT: dout_22 
* OUTPUT: dout_23 
* OUTPUT: dout_24 
* OUTPUT: dout_25 
* OUTPUT: dout_26 
* OUTPUT: dout_27 
* OUTPUT: dout_28 
* OUTPUT: dout_29 
* OUTPUT: dout_30 
* OUTPUT: dout_31 
* OUTPUT: dout_32 
* OUTPUT: dout_33 
* OUTPUT: dout_34 
* OUTPUT: dout_35 
* OUTPUT: dout_36 
* OUTPUT: dout_37 
* OUTPUT: dout_38 
* OUTPUT: dout_39 
* OUTPUT: dout_40 
* OUTPUT: dout_41 
* OUTPUT: dout_42 
* OUTPUT: dout_43 
* OUTPUT: dout_44 
* OUTPUT: dout_45 
* OUTPUT: dout_46 
* OUTPUT: dout_47 
* OUTPUT: dout_48 
* OUTPUT: dout_49 
* OUTPUT: dout_50 
* OUTPUT: dout_51 
* OUTPUT: dout_52 
* OUTPUT: dout_53 
* OUTPUT: dout_54 
* OUTPUT: dout_55 
* OUTPUT: dout_56 
* OUTPUT: dout_57 
* OUTPUT: dout_58 
* OUTPUT: dout_59 
* OUTPUT: dout_60 
* OUTPUT: dout_61 
* OUTPUT: dout_62 
* OUTPUT: dout_63 
* OUTPUT: dout_64 
* OUTPUT: dout_65 
* OUTPUT: dout_66 
* OUTPUT: dout_67 
* OUTPUT: dout_68 
* OUTPUT: dout_69 
* OUTPUT: dout_70 
* OUTPUT: dout_71 
* OUTPUT: dout_72 
* OUTPUT: dout_73 
* OUTPUT: dout_74 
* OUTPUT: dout_75 
* OUTPUT: dout_76 
* OUTPUT: dout_77 
* OUTPUT: dout_78 
* OUTPUT: dout_79 
* OUTPUT: dout_80 
* OUTPUT: dout_81 
* OUTPUT: dout_82 
* OUTPUT: dout_83 
* OUTPUT: dout_84 
* OUTPUT: dout_85 
* OUTPUT: dout_86 
* OUTPUT: dout_87 
* OUTPUT: dout_88 
* OUTPUT: dout_89 
* OUTPUT: dout_90 
* OUTPUT: dout_91 
* OUTPUT: dout_92 
* OUTPUT: dout_93 
* OUTPUT: dout_94 
* OUTPUT: dout_95 
* OUTPUT: dout_96 
* OUTPUT: dout_97 
* OUTPUT: dout_98 
* OUTPUT: dout_99 
* OUTPUT: dout_100 
* OUTPUT: dout_101 
* OUTPUT: dout_102 
* OUTPUT: dout_103 
* OUTPUT: dout_104 
* OUTPUT: dout_105 
* OUTPUT: dout_106 
* OUTPUT: dout_107 
* OUTPUT: dout_108 
* OUTPUT: dout_109 
* OUTPUT: dout_110 
* OUTPUT: dout_111 
* OUTPUT: dout_112 
* OUTPUT: dout_113 
* OUTPUT: dout_114 
* OUTPUT: dout_115 
* OUTPUT: dout_116 
* OUTPUT: dout_117 
* OUTPUT: dout_118 
* OUTPUT: dout_119 
* OUTPUT: dout_120 
* OUTPUT: dout_121 
* OUTPUT: dout_122 
* OUTPUT: dout_123 
* OUTPUT: dout_124 
* OUTPUT: dout_125 
* OUTPUT: dout_126 
* OUTPUT: dout_127 
* OUTPUT: dout_128 
* OUTPUT: dout_129 
* OUTPUT: dout_130 
* OUTPUT: dout_131 
* OUTPUT: dout_132 
* OUTPUT: dout_133 
* OUTPUT: dout_134 
* OUTPUT: dout_135 
* OUTPUT: dout_136 
* OUTPUT: dout_137 
* OUTPUT: dout_138 
* OUTPUT: dout_139 
* OUTPUT: dout_140 
* OUTPUT: dout_141 
* OUTPUT: dout_142 
* OUTPUT: dout_143 
* OUTPUT: dout_144 
* OUTPUT: dout_145 
* OUTPUT: dout_146 
* OUTPUT: dout_147 
* OUTPUT: dout_148 
* OUTPUT: dout_149 
* OUTPUT: dout_150 
* OUTPUT: dout_151 
* OUTPUT: dout_152 
* OUTPUT: dout_153 
* OUTPUT: dout_154 
* OUTPUT: dout_155 
* OUTPUT: dout_156 
* OUTPUT: dout_157 
* OUTPUT: dout_158 
* OUTPUT: dout_159 
* OUTPUT: dout_160 
* OUTPUT: dout_161 
* OUTPUT: dout_162 
* OUTPUT: dout_163 
* OUTPUT: dout_164 
* OUTPUT: dout_165 
* OUTPUT: dout_166 
* OUTPUT: dout_167 
* OUTPUT: dout_168 
* OUTPUT: dout_169 
* OUTPUT: dout_170 
* OUTPUT: dout_171 
* OUTPUT: dout_172 
* OUTPUT: dout_173 
* OUTPUT: dout_174 
* OUTPUT: dout_175 
* OUTPUT: dout_176 
* OUTPUT: dout_177 
* OUTPUT: dout_178 
* OUTPUT: dout_179 
* OUTPUT: dout_180 
* OUTPUT: dout_181 
* OUTPUT: dout_182 
* OUTPUT: dout_183 
* OUTPUT: dout_184 
* OUTPUT: dout_185 
* OUTPUT: dout_186 
* OUTPUT: dout_187 
* OUTPUT: dout_188 
* OUTPUT: dout_189 
* OUTPUT: dout_190 
* OUTPUT: dout_191 
* OUTPUT: dout_192 
* OUTPUT: dout_193 
* OUTPUT: dout_194 
* OUTPUT: dout_195 
* OUTPUT: dout_196 
* OUTPUT: dout_197 
* OUTPUT: dout_198 
* OUTPUT: dout_199 
* OUTPUT: dout_200 
* OUTPUT: dout_201 
* OUTPUT: dout_202 
* OUTPUT: dout_203 
* OUTPUT: dout_204 
* OUTPUT: dout_205 
* OUTPUT: dout_206 
* OUTPUT: dout_207 
* OUTPUT: dout_208 
* OUTPUT: dout_209 
* OUTPUT: dout_210 
* OUTPUT: dout_211 
* OUTPUT: dout_212 
* OUTPUT: dout_213 
* OUTPUT: dout_214 
* OUTPUT: dout_215 
* OUTPUT: dout_216 
* OUTPUT: dout_217 
* OUTPUT: dout_218 
* OUTPUT: dout_219 
* OUTPUT: dout_220 
* OUTPUT: dout_221 
* OUTPUT: dout_222 
* OUTPUT: dout_223 
* OUTPUT: dout_224 
* OUTPUT: dout_225 
* OUTPUT: dout_226 
* OUTPUT: dout_227 
* OUTPUT: dout_228 
* OUTPUT: dout_229 
* OUTPUT: dout_230 
* OUTPUT: dout_231 
* OUTPUT: dout_232 
* OUTPUT: dout_233 
* OUTPUT: dout_234 
* OUTPUT: dout_235 
* OUTPUT: dout_236 
* OUTPUT: dout_237 
* OUTPUT: dout_238 
* OUTPUT: dout_239 
* OUTPUT: dout_240 
* OUTPUT: dout_241 
* OUTPUT: dout_242 
* OUTPUT: dout_243 
* OUTPUT: dout_244 
* OUTPUT: dout_245 
* OUTPUT: dout_246 
* OUTPUT: dout_247 
* OUTPUT: dout_248 
* OUTPUT: dout_249 
* OUTPUT: dout_250 
* OUTPUT: dout_251 
* OUTPUT: dout_252 
* OUTPUT: dout_253 
* OUTPUT: dout_254 
* OUTPUT: dout_255 
* INPUT : clk 
* POWER : vdd 
* GROUND: gnd 
* rows: 1 cols: 256
Xdff_r0_c0 din_0 dout_0 clk vdd gnd dff
Xdff_r0_c1 din_1 dout_1 clk vdd gnd dff
Xdff_r0_c2 din_2 dout_2 clk vdd gnd dff
Xdff_r0_c3 din_3 dout_3 clk vdd gnd dff
Xdff_r0_c4 din_4 dout_4 clk vdd gnd dff
Xdff_r0_c5 din_5 dout_5 clk vdd gnd dff
Xdff_r0_c6 din_6 dout_6 clk vdd gnd dff
Xdff_r0_c7 din_7 dout_7 clk vdd gnd dff
Xdff_r0_c8 din_8 dout_8 clk vdd gnd dff
Xdff_r0_c9 din_9 dout_9 clk vdd gnd dff
Xdff_r0_c10 din_10 dout_10 clk vdd gnd dff
Xdff_r0_c11 din_11 dout_11 clk vdd gnd dff
Xdff_r0_c12 din_12 dout_12 clk vdd gnd dff
Xdff_r0_c13 din_13 dout_13 clk vdd gnd dff
Xdff_r0_c14 din_14 dout_14 clk vdd gnd dff
Xdff_r0_c15 din_15 dout_15 clk vdd gnd dff
Xdff_r0_c16 din_16 dout_16 clk vdd gnd dff
Xdff_r0_c17 din_17 dout_17 clk vdd gnd dff
Xdff_r0_c18 din_18 dout_18 clk vdd gnd dff
Xdff_r0_c19 din_19 dout_19 clk vdd gnd dff
Xdff_r0_c20 din_20 dout_20 clk vdd gnd dff
Xdff_r0_c21 din_21 dout_21 clk vdd gnd dff
Xdff_r0_c22 din_22 dout_22 clk vdd gnd dff
Xdff_r0_c23 din_23 dout_23 clk vdd gnd dff
Xdff_r0_c24 din_24 dout_24 clk vdd gnd dff
Xdff_r0_c25 din_25 dout_25 clk vdd gnd dff
Xdff_r0_c26 din_26 dout_26 clk vdd gnd dff
Xdff_r0_c27 din_27 dout_27 clk vdd gnd dff
Xdff_r0_c28 din_28 dout_28 clk vdd gnd dff
Xdff_r0_c29 din_29 dout_29 clk vdd gnd dff
Xdff_r0_c30 din_30 dout_30 clk vdd gnd dff
Xdff_r0_c31 din_31 dout_31 clk vdd gnd dff
Xdff_r0_c32 din_32 dout_32 clk vdd gnd dff
Xdff_r0_c33 din_33 dout_33 clk vdd gnd dff
Xdff_r0_c34 din_34 dout_34 clk vdd gnd dff
Xdff_r0_c35 din_35 dout_35 clk vdd gnd dff
Xdff_r0_c36 din_36 dout_36 clk vdd gnd dff
Xdff_r0_c37 din_37 dout_37 clk vdd gnd dff
Xdff_r0_c38 din_38 dout_38 clk vdd gnd dff
Xdff_r0_c39 din_39 dout_39 clk vdd gnd dff
Xdff_r0_c40 din_40 dout_40 clk vdd gnd dff
Xdff_r0_c41 din_41 dout_41 clk vdd gnd dff
Xdff_r0_c42 din_42 dout_42 clk vdd gnd dff
Xdff_r0_c43 din_43 dout_43 clk vdd gnd dff
Xdff_r0_c44 din_44 dout_44 clk vdd gnd dff
Xdff_r0_c45 din_45 dout_45 clk vdd gnd dff
Xdff_r0_c46 din_46 dout_46 clk vdd gnd dff
Xdff_r0_c47 din_47 dout_47 clk vdd gnd dff
Xdff_r0_c48 din_48 dout_48 clk vdd gnd dff
Xdff_r0_c49 din_49 dout_49 clk vdd gnd dff
Xdff_r0_c50 din_50 dout_50 clk vdd gnd dff
Xdff_r0_c51 din_51 dout_51 clk vdd gnd dff
Xdff_r0_c52 din_52 dout_52 clk vdd gnd dff
Xdff_r0_c53 din_53 dout_53 clk vdd gnd dff
Xdff_r0_c54 din_54 dout_54 clk vdd gnd dff
Xdff_r0_c55 din_55 dout_55 clk vdd gnd dff
Xdff_r0_c56 din_56 dout_56 clk vdd gnd dff
Xdff_r0_c57 din_57 dout_57 clk vdd gnd dff
Xdff_r0_c58 din_58 dout_58 clk vdd gnd dff
Xdff_r0_c59 din_59 dout_59 clk vdd gnd dff
Xdff_r0_c60 din_60 dout_60 clk vdd gnd dff
Xdff_r0_c61 din_61 dout_61 clk vdd gnd dff
Xdff_r0_c62 din_62 dout_62 clk vdd gnd dff
Xdff_r0_c63 din_63 dout_63 clk vdd gnd dff
Xdff_r0_c64 din_64 dout_64 clk vdd gnd dff
Xdff_r0_c65 din_65 dout_65 clk vdd gnd dff
Xdff_r0_c66 din_66 dout_66 clk vdd gnd dff
Xdff_r0_c67 din_67 dout_67 clk vdd gnd dff
Xdff_r0_c68 din_68 dout_68 clk vdd gnd dff
Xdff_r0_c69 din_69 dout_69 clk vdd gnd dff
Xdff_r0_c70 din_70 dout_70 clk vdd gnd dff
Xdff_r0_c71 din_71 dout_71 clk vdd gnd dff
Xdff_r0_c72 din_72 dout_72 clk vdd gnd dff
Xdff_r0_c73 din_73 dout_73 clk vdd gnd dff
Xdff_r0_c74 din_74 dout_74 clk vdd gnd dff
Xdff_r0_c75 din_75 dout_75 clk vdd gnd dff
Xdff_r0_c76 din_76 dout_76 clk vdd gnd dff
Xdff_r0_c77 din_77 dout_77 clk vdd gnd dff
Xdff_r0_c78 din_78 dout_78 clk vdd gnd dff
Xdff_r0_c79 din_79 dout_79 clk vdd gnd dff
Xdff_r0_c80 din_80 dout_80 clk vdd gnd dff
Xdff_r0_c81 din_81 dout_81 clk vdd gnd dff
Xdff_r0_c82 din_82 dout_82 clk vdd gnd dff
Xdff_r0_c83 din_83 dout_83 clk vdd gnd dff
Xdff_r0_c84 din_84 dout_84 clk vdd gnd dff
Xdff_r0_c85 din_85 dout_85 clk vdd gnd dff
Xdff_r0_c86 din_86 dout_86 clk vdd gnd dff
Xdff_r0_c87 din_87 dout_87 clk vdd gnd dff
Xdff_r0_c88 din_88 dout_88 clk vdd gnd dff
Xdff_r0_c89 din_89 dout_89 clk vdd gnd dff
Xdff_r0_c90 din_90 dout_90 clk vdd gnd dff
Xdff_r0_c91 din_91 dout_91 clk vdd gnd dff
Xdff_r0_c92 din_92 dout_92 clk vdd gnd dff
Xdff_r0_c93 din_93 dout_93 clk vdd gnd dff
Xdff_r0_c94 din_94 dout_94 clk vdd gnd dff
Xdff_r0_c95 din_95 dout_95 clk vdd gnd dff
Xdff_r0_c96 din_96 dout_96 clk vdd gnd dff
Xdff_r0_c97 din_97 dout_97 clk vdd gnd dff
Xdff_r0_c98 din_98 dout_98 clk vdd gnd dff
Xdff_r0_c99 din_99 dout_99 clk vdd gnd dff
Xdff_r0_c100 din_100 dout_100 clk vdd gnd dff
Xdff_r0_c101 din_101 dout_101 clk vdd gnd dff
Xdff_r0_c102 din_102 dout_102 clk vdd gnd dff
Xdff_r0_c103 din_103 dout_103 clk vdd gnd dff
Xdff_r0_c104 din_104 dout_104 clk vdd gnd dff
Xdff_r0_c105 din_105 dout_105 clk vdd gnd dff
Xdff_r0_c106 din_106 dout_106 clk vdd gnd dff
Xdff_r0_c107 din_107 dout_107 clk vdd gnd dff
Xdff_r0_c108 din_108 dout_108 clk vdd gnd dff
Xdff_r0_c109 din_109 dout_109 clk vdd gnd dff
Xdff_r0_c110 din_110 dout_110 clk vdd gnd dff
Xdff_r0_c111 din_111 dout_111 clk vdd gnd dff
Xdff_r0_c112 din_112 dout_112 clk vdd gnd dff
Xdff_r0_c113 din_113 dout_113 clk vdd gnd dff
Xdff_r0_c114 din_114 dout_114 clk vdd gnd dff
Xdff_r0_c115 din_115 dout_115 clk vdd gnd dff
Xdff_r0_c116 din_116 dout_116 clk vdd gnd dff
Xdff_r0_c117 din_117 dout_117 clk vdd gnd dff
Xdff_r0_c118 din_118 dout_118 clk vdd gnd dff
Xdff_r0_c119 din_119 dout_119 clk vdd gnd dff
Xdff_r0_c120 din_120 dout_120 clk vdd gnd dff
Xdff_r0_c121 din_121 dout_121 clk vdd gnd dff
Xdff_r0_c122 din_122 dout_122 clk vdd gnd dff
Xdff_r0_c123 din_123 dout_123 clk vdd gnd dff
Xdff_r0_c124 din_124 dout_124 clk vdd gnd dff
Xdff_r0_c125 din_125 dout_125 clk vdd gnd dff
Xdff_r0_c126 din_126 dout_126 clk vdd gnd dff
Xdff_r0_c127 din_127 dout_127 clk vdd gnd dff
Xdff_r0_c128 din_128 dout_128 clk vdd gnd dff
Xdff_r0_c129 din_129 dout_129 clk vdd gnd dff
Xdff_r0_c130 din_130 dout_130 clk vdd gnd dff
Xdff_r0_c131 din_131 dout_131 clk vdd gnd dff
Xdff_r0_c132 din_132 dout_132 clk vdd gnd dff
Xdff_r0_c133 din_133 dout_133 clk vdd gnd dff
Xdff_r0_c134 din_134 dout_134 clk vdd gnd dff
Xdff_r0_c135 din_135 dout_135 clk vdd gnd dff
Xdff_r0_c136 din_136 dout_136 clk vdd gnd dff
Xdff_r0_c137 din_137 dout_137 clk vdd gnd dff
Xdff_r0_c138 din_138 dout_138 clk vdd gnd dff
Xdff_r0_c139 din_139 dout_139 clk vdd gnd dff
Xdff_r0_c140 din_140 dout_140 clk vdd gnd dff
Xdff_r0_c141 din_141 dout_141 clk vdd gnd dff
Xdff_r0_c142 din_142 dout_142 clk vdd gnd dff
Xdff_r0_c143 din_143 dout_143 clk vdd gnd dff
Xdff_r0_c144 din_144 dout_144 clk vdd gnd dff
Xdff_r0_c145 din_145 dout_145 clk vdd gnd dff
Xdff_r0_c146 din_146 dout_146 clk vdd gnd dff
Xdff_r0_c147 din_147 dout_147 clk vdd gnd dff
Xdff_r0_c148 din_148 dout_148 clk vdd gnd dff
Xdff_r0_c149 din_149 dout_149 clk vdd gnd dff
Xdff_r0_c150 din_150 dout_150 clk vdd gnd dff
Xdff_r0_c151 din_151 dout_151 clk vdd gnd dff
Xdff_r0_c152 din_152 dout_152 clk vdd gnd dff
Xdff_r0_c153 din_153 dout_153 clk vdd gnd dff
Xdff_r0_c154 din_154 dout_154 clk vdd gnd dff
Xdff_r0_c155 din_155 dout_155 clk vdd gnd dff
Xdff_r0_c156 din_156 dout_156 clk vdd gnd dff
Xdff_r0_c157 din_157 dout_157 clk vdd gnd dff
Xdff_r0_c158 din_158 dout_158 clk vdd gnd dff
Xdff_r0_c159 din_159 dout_159 clk vdd gnd dff
Xdff_r0_c160 din_160 dout_160 clk vdd gnd dff
Xdff_r0_c161 din_161 dout_161 clk vdd gnd dff
Xdff_r0_c162 din_162 dout_162 clk vdd gnd dff
Xdff_r0_c163 din_163 dout_163 clk vdd gnd dff
Xdff_r0_c164 din_164 dout_164 clk vdd gnd dff
Xdff_r0_c165 din_165 dout_165 clk vdd gnd dff
Xdff_r0_c166 din_166 dout_166 clk vdd gnd dff
Xdff_r0_c167 din_167 dout_167 clk vdd gnd dff
Xdff_r0_c168 din_168 dout_168 clk vdd gnd dff
Xdff_r0_c169 din_169 dout_169 clk vdd gnd dff
Xdff_r0_c170 din_170 dout_170 clk vdd gnd dff
Xdff_r0_c171 din_171 dout_171 clk vdd gnd dff
Xdff_r0_c172 din_172 dout_172 clk vdd gnd dff
Xdff_r0_c173 din_173 dout_173 clk vdd gnd dff
Xdff_r0_c174 din_174 dout_174 clk vdd gnd dff
Xdff_r0_c175 din_175 dout_175 clk vdd gnd dff
Xdff_r0_c176 din_176 dout_176 clk vdd gnd dff
Xdff_r0_c177 din_177 dout_177 clk vdd gnd dff
Xdff_r0_c178 din_178 dout_178 clk vdd gnd dff
Xdff_r0_c179 din_179 dout_179 clk vdd gnd dff
Xdff_r0_c180 din_180 dout_180 clk vdd gnd dff
Xdff_r0_c181 din_181 dout_181 clk vdd gnd dff
Xdff_r0_c182 din_182 dout_182 clk vdd gnd dff
Xdff_r0_c183 din_183 dout_183 clk vdd gnd dff
Xdff_r0_c184 din_184 dout_184 clk vdd gnd dff
Xdff_r0_c185 din_185 dout_185 clk vdd gnd dff
Xdff_r0_c186 din_186 dout_186 clk vdd gnd dff
Xdff_r0_c187 din_187 dout_187 clk vdd gnd dff
Xdff_r0_c188 din_188 dout_188 clk vdd gnd dff
Xdff_r0_c189 din_189 dout_189 clk vdd gnd dff
Xdff_r0_c190 din_190 dout_190 clk vdd gnd dff
Xdff_r0_c191 din_191 dout_191 clk vdd gnd dff
Xdff_r0_c192 din_192 dout_192 clk vdd gnd dff
Xdff_r0_c193 din_193 dout_193 clk vdd gnd dff
Xdff_r0_c194 din_194 dout_194 clk vdd gnd dff
Xdff_r0_c195 din_195 dout_195 clk vdd gnd dff
Xdff_r0_c196 din_196 dout_196 clk vdd gnd dff
Xdff_r0_c197 din_197 dout_197 clk vdd gnd dff
Xdff_r0_c198 din_198 dout_198 clk vdd gnd dff
Xdff_r0_c199 din_199 dout_199 clk vdd gnd dff
Xdff_r0_c200 din_200 dout_200 clk vdd gnd dff
Xdff_r0_c201 din_201 dout_201 clk vdd gnd dff
Xdff_r0_c202 din_202 dout_202 clk vdd gnd dff
Xdff_r0_c203 din_203 dout_203 clk vdd gnd dff
Xdff_r0_c204 din_204 dout_204 clk vdd gnd dff
Xdff_r0_c205 din_205 dout_205 clk vdd gnd dff
Xdff_r0_c206 din_206 dout_206 clk vdd gnd dff
Xdff_r0_c207 din_207 dout_207 clk vdd gnd dff
Xdff_r0_c208 din_208 dout_208 clk vdd gnd dff
Xdff_r0_c209 din_209 dout_209 clk vdd gnd dff
Xdff_r0_c210 din_210 dout_210 clk vdd gnd dff
Xdff_r0_c211 din_211 dout_211 clk vdd gnd dff
Xdff_r0_c212 din_212 dout_212 clk vdd gnd dff
Xdff_r0_c213 din_213 dout_213 clk vdd gnd dff
Xdff_r0_c214 din_214 dout_214 clk vdd gnd dff
Xdff_r0_c215 din_215 dout_215 clk vdd gnd dff
Xdff_r0_c216 din_216 dout_216 clk vdd gnd dff
Xdff_r0_c217 din_217 dout_217 clk vdd gnd dff
Xdff_r0_c218 din_218 dout_218 clk vdd gnd dff
Xdff_r0_c219 din_219 dout_219 clk vdd gnd dff
Xdff_r0_c220 din_220 dout_220 clk vdd gnd dff
Xdff_r0_c221 din_221 dout_221 clk vdd gnd dff
Xdff_r0_c222 din_222 dout_222 clk vdd gnd dff
Xdff_r0_c223 din_223 dout_223 clk vdd gnd dff
Xdff_r0_c224 din_224 dout_224 clk vdd gnd dff
Xdff_r0_c225 din_225 dout_225 clk vdd gnd dff
Xdff_r0_c226 din_226 dout_226 clk vdd gnd dff
Xdff_r0_c227 din_227 dout_227 clk vdd gnd dff
Xdff_r0_c228 din_228 dout_228 clk vdd gnd dff
Xdff_r0_c229 din_229 dout_229 clk vdd gnd dff
Xdff_r0_c230 din_230 dout_230 clk vdd gnd dff
Xdff_r0_c231 din_231 dout_231 clk vdd gnd dff
Xdff_r0_c232 din_232 dout_232 clk vdd gnd dff
Xdff_r0_c233 din_233 dout_233 clk vdd gnd dff
Xdff_r0_c234 din_234 dout_234 clk vdd gnd dff
Xdff_r0_c235 din_235 dout_235 clk vdd gnd dff
Xdff_r0_c236 din_236 dout_236 clk vdd gnd dff
Xdff_r0_c237 din_237 dout_237 clk vdd gnd dff
Xdff_r0_c238 din_238 dout_238 clk vdd gnd dff
Xdff_r0_c239 din_239 dout_239 clk vdd gnd dff
Xdff_r0_c240 din_240 dout_240 clk vdd gnd dff
Xdff_r0_c241 din_241 dout_241 clk vdd gnd dff
Xdff_r0_c242 din_242 dout_242 clk vdd gnd dff
Xdff_r0_c243 din_243 dout_243 clk vdd gnd dff
Xdff_r0_c244 din_244 dout_244 clk vdd gnd dff
Xdff_r0_c245 din_245 dout_245 clk vdd gnd dff
Xdff_r0_c246 din_246 dout_246 clk vdd gnd dff
Xdff_r0_c247 din_247 dout_247 clk vdd gnd dff
Xdff_r0_c248 din_248 dout_248 clk vdd gnd dff
Xdff_r0_c249 din_249 dout_249 clk vdd gnd dff
Xdff_r0_c250 din_250 dout_250 clk vdd gnd dff
Xdff_r0_c251 din_251 dout_251 clk vdd gnd dff
Xdff_r0_c252 din_252 dout_252 clk vdd gnd dff
Xdff_r0_c253 din_253 dout_253 clk vdd gnd dff
Xdff_r0_c254 din_254 dout_254 clk vdd gnd dff
Xdff_r0_c255 din_255 dout_255 clk vdd gnd dff
.ENDS data_dff

* ptx M{0} {1} pmos_vtg m=1 w=0.27u l=0.05u pd=0.64u ps=0.64u as=0.03p ad=0.03p

.SUBCKT precharge_1 bl br en_bar vdd
* OUTPUT: bl 
* OUTPUT: br 
* INPUT : en_bar 
* POWER : vdd 
Mlower_pmos bl en_bar br vdd pmos_vtg m=1 w=0.27u l=0.05u pd=0.64u ps=0.64u as=0.03p ad=0.03p
Mupper_pmos1 bl en_bar vdd vdd pmos_vtg m=1 w=0.27u l=0.05u pd=0.64u ps=0.64u as=0.03p ad=0.03p
Mupper_pmos2 br en_bar vdd vdd pmos_vtg m=1 w=0.27u l=0.05u pd=0.64u ps=0.64u as=0.03p ad=0.03p
.ENDS precharge_1
